data/case300_modified.m
function mpc = case300_modified
%   SALT variant of case300, generated by build_timing_cases.m:
%     - 62 transformer ratios set to 1 (as consistent with ParaEMT,
%       NREL's open-source EMT simulator, which reads the tap ratio
%       from the power flow but never uses it - its transformers are
%       stamped as a plain series R-L; see lib_numba.py "R-L model
%       xfmr", where xfmr_k is stored and never consumed. M. Xiong et
%       al., IEEE Trans. Power Del., vol. 39, no. 2, 2024), 0 phase
%       shifts set to 0
%     - 62 branches reclassified from PI line to series R-L (their own
%       data has no resistance, no charging, or capacitive reactance,
%       so a PI line cannot describe them); impedances unchanged
%     - 242 line ratings set to 9999 MVA, standing in for MATPOWER's
%       "0 = unlimited" (not a real thermal limit)
%     - 0 generators dropped (offline or zero injection), 0 lumped
%       onto shared buses, 0 buses demoted PV -> PQ
%     - the case below is RE-SOLVED for this modified network in SALT, 
%       which can differ from MATPOWER file as-shipped for two reasons: the
%       source case is not itself a solved snapshot, and setting the tap
%       ratios to 1 moves the operating point again. Impedances,
%       loads, limits, shunts, bus types and areas are unchanged.
%
%CASE300_MODIFIED

%% MATPOWER Case Format : Version 2
mpc.version = '2';

%%-----  Power Flow Data  -----%%
%% system MVA base
mpc.baseMVA = 100;

%% bus data
%	bus_i	type	Pd	Qd	Gs	Bs	area	Vm	Va	baseKV	zone	Vmax	Vmin
mpc.bus = [
	1	1	90	49	0	0	1	1.01645103	5.85231581	115	1	1.06	0.94;
	2	1	56	15	0	0	1	1.02957783	7.62449766	115	1	1.06	0.94;
	3	1	20	0	0	0	1	1.01909578	6.54583818	230	1	1.06	0.94;
	4	1	0	0	0	0	1	1.02277405	4.62732494	345	1	1.06	0.94;
	5	1	353	130	0	0	1	1.0060108	4.56775406	115	1	1.06	0.94;
	6	1	120	41	0	0	1	1.02311483	6.88732186	115	1	1.06	0.94;
	7	1	0	0	0	0	1	1.01783982	6.09969776	230	1	1.06	0.94;
	8	2	63	14	0	0	1	1.0153	2.13290909	115	1	1.06	0.94;
	9	1	96	43	0	0	1	0.998262929	2.65392258	115	1	1.06	0.94;
	10	2	153	33	0	0	1	1.0205	1.23833213	230	1	1.06	0.94;
	11	1	83	21	0	0	1	1.00810446	2.21040691	115	1	1.06	0.94;
	12	1	0	0	0	0	1	1.02012342	5.13227314	230	1	1.06	0.94;
	13	1	58	10	0	0	1	0.998969102	-0.740536312	115	1	1.06	0.94;
	14	1	160	60	0	0	1	0.986888814	-5.06105438	115	1	1.06	0.94;
	15	1	126.7	23	0	0	1	1.01032078	-8.848971	115	1	1.06	0.94;
	16	1	0	0	0	0	1	1.02264627	-2.68686096	345	1	1.06	0.94;
	17	1	561	220	0	0	1	0.994724457	-14.1469516	115	1	1.06	0.94;
	19	1	0	0	0	0	1	1.00990081	1.05013826	230	1	1.06	0.94;
	20	2	605	120	0	0	1	1.001	-2.5959933	115	1	1.06	0.94;
	21	1	77	1	0	0	1	1.00818697	1.59488207	230	1	1.06	0.94;
	22	1	81	23	0	0	1	0.994172969	-2.11093064	115	1	1.06	0.94;
	23	1	21	7	0	0	1	1.0411863	3.84877043	115	1	1.06	0.94;
	24	1	0	0	0	0	1	1.02844753	5.89349777	230	1	1.06	0.94;
	25	1	45	12	0	0	1	1.01507396	1.3122532	115	1	1.06	0.94;
	26	1	28	9	0	0	1	0.991730542	-1.90396117	115	1	1.06	0.94;
	27	1	69	13	0	0	1	0.970707485	-5.07744715	115	1	1.06	0.94;
	33	1	55	6	0	0	1	1.00517077	-12.1978754	115	1	1.06	0.94;
	34	1	0	0	0	0	1	1.02185865	-7.99039004	345	1	1.06	0.94;
	35	1	0	0	0	0	1	0.973948222	-26.458248	115	1	1.06	0.94;
	36	1	0	0	0	0	1	0.989415346	-23.2111375	230	1	1.06	0.94;
	37	1	85	32	0	0	1	0.999522499	-11.3557869	115	1	1.06	0.94;
	38	1	155	18	0	0	1	1.0006595	-12.7490558	115	1	1.06	0.94;
	39	1	0	0	0	0	1	1.03076215	-5.76355294	345	1	1.06	0.94;
	40	1	46	-21	0	0	1	1.00284866	-12.9785573	115	1	1.06	0.94;
	41	1	86	0	0	0	1	1.01023334	-10.56301	115	1	1.06	0.94;
	42	1	0	0	0	0	1	1.02536087	-7.48309584	345	1	1.06	0.94;
	43	1	39	9	0	0	1	0.980611181	-17.1055703	115	1	1.06	0.94;
	44	1	195	29	0	0	1	0.989604297	-17.828948	115	1	1.06	0.94;
	45	1	0	0	0	0	1	1.00012117	-15.0224243	230	1	1.06	0.94;
	46	1	0	0	0	0	1	1.01557751	-11.9390321	345	1	1.06	0.94;
	47	1	58	11.8	0	0	1	0.962622102	-23.7292567	115	1	1.06	0.94;
	48	1	41	19	0	0	1	0.990546484	-16.3894016	115	1	1.06	0.94;
	49	1	92	26	0	0	1	1.04273867	-2.98911025	115	1	1.06	0.94;
	51	1	-5	5	0	0	1	1.00873525	-8.15526057	115	1	1.06	0.94;
	52	1	61	28	0	0	1	0.970526515	-11.8124531	115	1	1.06	0.94;
	53	1	69	3	0	0	1	0.974182678	-17.9349237	115	1	1.06	0.94;
	54	1	10	1	0	0	1	0.980552142	-16.4732191	115	1	1.06	0.94;
	55	1	22	10	0	0	1	0.980846782	-12.0249176	115	1	1.06	0.94;
	57	1	98	20	0	0	1	0.994489099	-7.37912507	115	1	1.06	0.94;
	58	1	14	1	0	0	1	0.967888154	-5.88180277	115	1	1.06	0.94;
	59	1	218	106	0	0	1	0.959851261	-5.28553582	115	1	1.06	0.94;
	60	1	0	0	0	0	1	1.00496447	-9.67696429	230	1	1.06	0.94;
	61	1	227	110	0	0	1	0.974511039	-3.43982607	115	1	1.06	0.94;
	62	1	0	0	0	0	1	1.00025802	-0.995380721	230	1	1.06	0.94;
	63	2	70	30	0	0	1	0.9583	-17.7919225	115	1	1.06	0.94;
	64	1	0	0	0	0	1	0.955365502	-13.2323355	230	1	1.06	0.94;
	69	1	0	0	0	0	1	0.955842969	-27.2019259	115	1	1.06	0.94;
	70	1	56	20	0	0	1	0.923279967	-35.9421216	115	1	1.06	0.94;
	71	1	116	38	0	0	1	0.952889172	-30.3578286	115	1	1.06	0.94;
	72	1	57	19	0	0	1	0.962223821	-28.1743212	115	1	1.06	0.94;
	73	1	224	71	0	0	1	0.966527801	-26.4089103	115	1	1.06	0.94;
	74	1	0	0	0	0	1	0.982978258	-22.5568287	230	1	1.06	0.94;
	76	2	208	107	0	0	1	0.9632	-27.3431037	115	1	1.06	0.94;
	77	1	74	28	0	0	1	0.980987177	-25.6753824	115	1	1.06	0.94;
	78	1	0	0	0	0	1	0.987037858	-24.7946552	115	1	1.06	0.94;
	79	1	48	14	0	0	1	0.976484935	-25.7505209	115	1	1.06	0.94;
	80	1	28	7	0	0	1	0.983353231	-25.5535069	115	1	1.06	0.94;
	81	1	0	0	0	0	1	1.02432931	-19.3032236	345	1	1.06	0.94;
	84	2	37	13	0	0	1	1.025	-17.8869026	115	1	1.06	0.94;
	85	1	0	0	0	0	1	0.988609162	-17.9352155	230	1	1.06	0.94;
	86	1	0	0	0	0	1	0.994872825	-14.3428097	230	1	1.06	0.94;
	87	1	0	0	0	0	1	1.00395483	-7.80930899	230	1	1.06	0.94;
	88	1	0	0	0	0	1	1.00377792	-21.4797917	230	1	1.06	0.94;
	89	1	44.2	0	0	0	1	1.02070758	-11.3441192	115	1	1.06	0.94;
	90	1	66	0	0	0	1	1.01313655	-11.5290836	115	1	1.06	0.94;
	91	2	17.4	0	0	0	1	1.052	-9.56859645	115	1	1.06	0.94;
	92	2	15.8	0	0	0	1	1.052	-6.51808333	115	1	1.06	0.94;
	94	1	60.3	0	0	0	1	1.01473537	-9.53319173	115	1	1.06	0.94;
	97	1	39.9	0	0	0	1	1.01985296	-13.4105444	115	1	1.06	0.94;
	98	2	66.7	0	0	0	1	1	-14.7533098	115	1	1.06	0.94;
	99	1	83.5	0	0	0	1	0.989234729	-20.625466	115	1	1.06	0.94;
	100	1	0	0	0	0	1	1.00737588	-14.6181975	115	1	1.06	0.94;
	102	1	77.8	0	0	0	1	1.0027529	-15.4187	115	1	1.06	0.94;
	103	1	32	0	0	0	1	1.02802195	-12.3402713	115	1	1.06	0.94;
	104	1	8.6	0	0	0	1	0.99701972	-17.5644341	115	1	1.06	0.94;
	105	1	49.6	0	0	0	1	1.02012814	-13.2509658	115	1	1.06	0.94;
	107	1	4.6	0	0	0	1	1.00354296	-16.3610637	115	1	1.06	0.94;
	108	2	112.1	0	0	0	1	0.99	-20.6134618	115	1	1.06	0.94;
	109	1	30.7	0	0	0	1	0.970775924	-26.7362307	115	1	1.06	0.94;
	110	1	63	0	0	0	1	0.970781015	-25.2977456	115	1	1.06	0.94;
	112	1	19.6	0	0	0	1	0.971782273	-29.8042965	115	1	1.06	0.94;
	113	1	26.2	0	0	0	1	0.958037246	-26.016781	115	1	1.06	0.94;
	114	1	18.2	0	0	0	1	0.974115605	-29.7541898	115	1	1.06	0.94;
	115	1	0	0	0	0	1	0.973235544	-14.4443729	115	2	1.06	0.94;
	116	1	0	0	0	0	1	1.01625967	-13.4718533	115	2	1.06	0.94;
	117	1	0	0	0	325	1	0.958663393	-5.48476033	115	2	1.06	0.94;
	118	1	14.1	650	0	0	1	0.952091362	-4.90275251	115	2	1.06	0.94;
	119	2	0	0	0	0	1	1.0435	4.30603664	115	2	1.06	0.94;
	120	1	777	215	0	55	1	0.958670239	-9.58919439	115	2	1.06	0.94;
	121	1	535	55	0	0	1	0.966995717	-13.6406639	115	2	1.06	0.94;
	122	1	229.1	11.8	0	0	1	0.976011139	-15.0577001	115	2	1.06	0.94;
	123	1	78	1.4	0	0	1	1.00129415	-18.3340453	115	2	1.06	0.94;
	124	2	276.4	59.3	0	0	1	1.0233	-14.2331362	115	2	1.06	0.94;
	125	2	514.8	82.7	0	0	1	1.0103	-19.0777923	115	2	1.06	0.94;
	126	1	57.9	5.1	0	0	1	0.993379445	-13.4778708	115	2	1.06	0.94;
	127	1	380.8	37	0	0	1	0.994976321	-11.0881723	230	2	1.06	0.94;
	128	1	0	0	0	0	1	0.995160498	-5.22866256	230	2	1.06	0.94;
	129	1	0	0	0	0	1	0.995438578	-4.84484025	230	2	1.06	0.94;
	130	1	0	0	0	0	1	0.999414492	5.49330028	230	2	1.06	0.94;
	131	1	0	0	0	0	1	1.01237847	5.96125805	230	2	1.06	0.94;
	132	1	0	0	0	0	1	0.977625693	2.92147938	230	2	1.06	0.94;
	133	1	0	0	0	0	1	0.997475932	-5.93725446	230	2	1.06	0.94;
	134	1	0	0	0	0	1	1.01910096	-8.6217555	230	2	1.06	0.94;
	135	1	169.2	41.6	0	0	1	1.01688039	-7.34391765	230	2	1.06	0.94;
	136	1	55.2	18.2	0	0	1	1.04633068	0.946359032	230	2	1.06	0.94;
	137	1	273.6	99.8	0	0	1	1.04413138	-1.89851797	230	2	1.06	0.94;
	138	2	1019.2	135.2	0	0	1	1.055	-6.81564957	230	2	1.06	0.94;
	139	1	595	83.3	0	0	1	1.02781014	-3.95707311	115	2	1.06	0.94;
	140	1	387.7	114.7	0	0	1	1.03157533	-3.83114918	230	2	1.06	0.94;
	141	2	145	58	0	0	1	1.051	-0.268796932	230	2	1.06	0.94;
	142	1	56.5	24.5	0	0	1	1.00981748	-3.07628939	230	2	1.06	0.94;
	143	2	89.5	35.5	0	0	1	1.0435	3.88908855	230	2	1.06	0.94;
	144	1	0	0	0	0	1	1.00429159	-0.625149655	230	2	1.06	0.94;
	145	1	24	14	0	0	1	1.00343459	-0.517826012	230	2	1.06	0.94;
	146	2	0	0	0	0	1	1.0528	3.95267888	230	2	1.06	0.94;
	147	2	0	0	0	0	1	1.0528	7.99692156	230	2	1.06	0.94;
	148	1	63	25	0	0	1	1.01802523	-0.0128499629	230	2	1.06	0.94;
	149	2	0	0	0	0	1	1.0735	5.00074049	230	2	1.06	0.94;
	150	1	0	0	0	0	1	1.01188276	6.2333659	230	2	1.06	0.94;
	151	1	0	0	0	0	1	0.97632083	4.0354238	230	2	1.06	0.94;
	152	2	17	9	0	0	1	1.0535	8.56275052	230	2	1.06	0.94;
	153	2	0	0	0	0	1	1.0435	9.57315904	230	2	1.06	0.94;
	154	1	70	5	0	34.5	1	1.00726591	-2.05350453	115	2	1.06	0.94;
	155	1	200	50	0	0	1	0.980551983	6.20405728	230	2	1.06	0.94;
	156	2	75	50	0	0	1	0.963	4.71311387	115	2	1.06	0.94;
	157	1	123.5	-24.3	0	0	1	0.978340178	-12.531556	230	2	1.06	0.94;
	158	1	0	0	0	0	1	0.996153896	-11.9999282	230	2	1.06	0.94;
	159	1	33	16.5	0	0	1	0.975606784	-10.3321929	230	2	1.06	0.94;
	160	1	0	0	0	0	1	1.01226627	-13.2650569	230	2	1.06	0.94;
	161	1	35	15	0	0	1	1.02355008	8.08735139	230	2	1.06	0.94;
	162	1	85	24	0	0	1	0.997975377	18.0054357	230	2	1.06	0.94;
	163	1	0	0.4	0	0	1	1.05619173	2.56909442	230	2	1.06	0.94;
	164	1	0	0	0	-212	1	0.993171734	9.28880412	230	2	1.06	0.94;
	165	1	0	0	0	0	1	1.00356728	25.7510147	230	2	1.06	0.94;
	166	1	0	0	0	-103	1	0.999120021	29.6437845	230	2	1.06	0.94;
	167	1	299.9	95.7	0	0	1	0.961737052	-7.38954159	230	2	1.06	0.94;
	168	1	0	0	0	0	1	0.995215647	-5.25212215	230	2	1.06	0.94;
	169	1	0	0	0	0	1	0.980849418	-7.16582027	230	2	1.06	0.94;
	170	2	481.8	205	0	0	1	0.929	0.080909158	115	2	1.06	0.94;
	171	2	763.6	291.1	0	0	1	0.9829	-10.437677	115	2	1.06	0.94;
	172	1	26.5	0	0	0	1	1.02003871	-6.6358451	115	2	1.06	0.94;
	173	1	163.5	43	0	53	1	0.972439773	-13.3673584	115	2	1.06	0.94;
	174	1	0	0	0	0	1	1.04120381	-3.04567871	115	2	1.06	0.94;
	175	1	176	83	0	0	1	0.965778048	-7.65791433	115	2	1.06	0.94;
	176	2	5	4	0	0	1	1.0522	4.03473753	115	2	1.06	0.94;
	177	2	28	12	0	0	1	1.0077	-0.046500187	115	2	1.06	0.94;
	178	1	427.4	173.6	0	0	1	0.928874527	-7.17874084	115	2	1.06	0.94;
	179	1	74	29	0	45	1	0.951694813	-10.0466854	115	2	1.06	0.94;
	180	1	69.5	49.3	0	0	1	0.972273469	-3.55763507	115	2	1.06	0.94;
	181	1	73.4	0	0	0	1	1.04994789	-1.77851658	230	2	1.06	0.94;
	182	1	240.7	89	0	0	1	1.02441395	-4.54842709	230	2	1.06	0.94;
	183	1	40	4	0	0	1	1.03813817	6.49553944	115	2	1.06	0.94;
	184	1	136.8	16.6	0	0	1	1.03741934	-7.42964164	230	2	1.06	0.94;
	185	2	0	0	0	0	1	1.0522	-4.91899737	230	2	1.06	0.94;
	186	2	59.8	24.3	0	0	1	1.065	1.72245844	230	2	1.06	0.94;
	187	2	59.8	24.3	0	0	1	1.065	0.942678143	230	2	1.06	0.94;
	188	1	182.6	43.6	0	0	1	1.0517708	-1.1748491	230	2	1.06	0.94;
	189	1	7	2	0	0	1	0.97100621	-26.7183046	66	3	1.06	0.94;
	190	2	0	0	0	-150	1	1.0551	-21.0558502	345	3	1.06	0.94;
	191	2	489	53	0	0	1	1.0435	11.8471294	230	3	1.06	0.94;
	192	1	800	72	0	0	1	0.937163246	-11.5896491	230	3	1.06	0.94;
	193	1	0	0	0	0	1	0.9637731	-28.193305	66	3	1.06	0.94;
	194	1	0	0	0	0	1	1.04233147	-19.6151474	345	3	1.06	0.94;
	195	1	0	0	0	0	1	1.03384675	-21.1855953	345	3	1.06	0.94;
	196	1	10	3	0	0	1	0.972577812	-24.9630218	115	3	1.06	0.94;
	197	1	43	14	0	0	1	0.989898257	-23.7853447	115	3	1.06	0.94;
	198	2	64	21	0	0	1	1.015	-20.8362615	115	3	1.06	0.94;
	199	1	35	12	0	0	1	0.953546383	-26.170897	115	3	1.06	0.94;
	200	1	27	12	0	0	1	0.955540953	-26.0855323	115	3	1.06	0.94;
	201	1	41	14	0	0	1	0.937550304	-30.0138627	66	1	1.06	0.94;
	202	1	38	13	0	0	1	0.977674751	-25.6324278	66	3	1.06	0.94;
	203	1	42	14	0	0	1	1.00097568	-22.6364057	115	3	1.06	0.94;
	204	1	72	24	0	0	1	0.927771646	-30.2832414	66	3	1.06	0.94;
	205	1	0	-5	0	0	1	0.949101325	-29.2370173	66	3	1.06	0.94;
	206	1	12	2	0	0	1	0.968741999	-29.0972084	66	3	1.06	0.94;
	207	1	-21	-14.2	0	0	1	0.983899446	-28.8356673	66	1	1.06	0.94;
	208	1	7	2	0	0	1	0.966194165	-27.7149252	66	3	1.06	0.94;
	209	1	38	13	0	0	1	0.973619034	-26.3267435	66	3	1.06	0.94;
	210	1	0	0	0	0	1	0.979633083	-24.3294173	115	3	1.06	0.94;
	211	1	96	7	0	0	1	0.996375365	-23.6490136	115	3	1.06	0.94;
	212	1	0	0	0	0	1	1.00544238	-22.8385073	138	3	1.06	0.94;
	213	2	0	0	0	0	1	1.01	-12.029112	16.5	3	1.06	0.94;
	214	1	22	16	0	0	1	0.991377598	-17.8888718	138	3	1.06	0.94;
	215	1	47	26	0	0	1	0.985074582	-20.5987207	138	3	1.06	0.94;
	216	1	176	105	0	0	1	0.97411701	-22.916881	138	3	1.06	0.94;
	217	1	100	75	0	0	1	1.0216785	-22.6101716	138	3	1.06	0.94;
	218	1	131	96	0	0	1	1.01857882	-23.0482716	138	3	1.06	0.94;
	219	1	0	0	0	0	1	1.0518289	-21.554918	345	3	1.06	0.94;
	220	2	285	100	0	0	1	1.008	-22.1304843	138	3	1.06	0.94;
	221	2	171	70	0	0	1	1	-22.9033961	138	3	1.06	0.94;
...
];

%% generator data
%	bus	Pg	Qg	Qmax	Qmin	Vg	mBase	status	Pmax	Pmin	Pc1	Pc2	Qc1min	Qc1max	Qc2min	Qc2max	ramp_agc	ramp_10	ramp_30	ramp_q	apf
mpc.gen = [
	8	0	57.2045913	10	-10	1.0153	100	1	100	0	0	0	0	0	0	0	0	0	0	0	0;
	10	0	52.6389971	20	-20	1.0205	100	1	100	0	0	0	0	0	0	0	0	0	0	0	0;
	20	0	139.278534	20	-20	1.001	100	1	100	0	0	0	0	0	0	0	0	0	0	0	0;
	63	0	53.3585537	25	-25	0.9583	100	1	100	0	0	0	0	0	0	0	0	0	0	0	0;
	76	0	71.5986921	35	12	0.9632	100	1	100	0	0	0	0	0	0	0	0	0	0	0	0;
	84	375	141.486521	240	-240	1.025	100	1	475	0	0	0	0	0	0	0	0	0	0	0	0;
	91	155	42.4348034	96	-11	1.052	100	1	255	0	0	0	0	0	0	0	0	0	0	0	0;
	92	290	42.2711822	153	-153	1.052	100	1	390	0	0	0	0	0	0	0	0	0	0	0	0;
	98	68	-14.5429917	56	-30	1	100	1	168	0	0	0	0	0	0	0	0	0	0	0	0;
	108	117	22.8981216	77	-24	0.99	100	1	217	0	0	0	0	0	0	0	0	0	0	0	0;
	119	1930	999.73672	1500	-500	1.0435	100	1	2030	0	0	0	0	0	0	0	0	0	0	0	0;
	124	240	144.174502	120	-60	1.0233	100	1	340	0	0	0	0	0	0	0	0	0	0	0	0;
	125	0	221.178919	200	-25	1.0103	100	1	100	0	0	0	0	0	0	0	0	0	0	0	0;
	138	0	246.411096	350	-125	1.055	100	1	100	0	0	0	0	0	0	0	0	0	0	0	0;
	141	281	68.0675405	75	-50	1.051	100	1	381	0	0	0	0	0	0	0	0	0	0	0	0;
	143	696	172.715165	300	-100	1.0435	100	1	796	0	0	0	0	0	0	0	0	0	0	0	0;
	146	84	47.2373738	35	-15	1.0528	100	1	184	0	0	0	0	0	0	0	0	0	0	0	0;
	147	217	-46.559257	100	-50	1.0528	100	1	317	0	0	0	0	0	0	0	0	0	0	0	0;
	149	103	53.3845372	50	-25	1.0735	100	1	203	0	0	0	0	0	0	0	0	0	0	0	0;
	152	372	-47.2026796	175	-50	1.0535	100	1	472	0	0	0	0	0	0	0	0	0	0	0	0;
	153	216	29.194906	90	-50	1.0435	100	1	316	0	0	0	0	0	0	0	0	0	0	0	0;
	156	0	-37.5698784	15	-10	0.963	100	1	100	0	0	0	0	0	0	0	0	0	0	0	0;
	170	205	-4.24357886	90	-40	0.929	100	1	305	0	0	0	0	0	0	0	0	0	0	0	0;
	171	0	194.301864	150	-50	0.9829	100	1	100	0	0	0	0	0	0	0	0	0	0	0	0;
	176	228	43.8520335	90	-45	1.0522	100	1	328	0	0	0	0	0	0	0	0	0	0	0	0;
	177	84	47.8453461	35	-15	1.0077	100	1	184	0	0	0	0	0	0	0	0	0	0	0	0;
	185	200	38.2685673	80	-50	1.0522	100	1	300	0	0	0	0	0	0	0	0	0	0	0	0;
	186	1200	276.712215	400	-100	1.065	100	1	1300	0	0	0	0	0	0	0	0	0	0	0	0;
	187	1200	321.020289	400	-100	1.065	100	1	1300	0	0	0	0	0	0	0	0	0	0	0	0;
	190	475	77.5227137	300	-300	1.0551	100	1	575	0	0	0	0	0	0	0	0	0	0	0	0;
	191	1973	693.369392	1000	-1000	1.0435	100	1	2073	0	0	0	0	0	0	0	0	0	0	0	0;
	198	424	111.738793	260	-260	1.015	100	1	524	0	0	0	0	0	0	0	0	0	0	0	0;
	213	272	45.3700231	150	-150	1.01	100	1	372	0	0	0	0	0	0	0	0	0	0	0	0;
	220	100	12.456326	60	-60	1.008	100	1	200	0	0	0	0	0	0	0	0	0	0	0	0;
	221	450	164.69783	320	-320	1	100	1	550	0	0	0	0	0	0	0	0	0	0	0	0;
	222	250	167.544206	300	-300	1.05	100	1	350	0	0	0	0	0	0	0	0	0	0	0	0;
	227	303	268.065265	300	-300	1	100	1	403	0	0	0	0	0	0	0	0	0	0	0	0;
	230	345	33.8635815	250	-250	1.04	100	1	445	0	0	0	0	0	0	0	0	0	0	0	0;
	233	300	136.931078	500	-500	1	100	1	400	0	0	0	0	0	0	0	0	0	0	0	0;
	236	600	50.7770305	300	-300	1.0165	100	1	700	0	0	0	0	0	0	0	0	0	0	0	0;
	238	250	397.31571	200	-200	1.01	100	1	350	0	0	0	0	0	0	0	0	0	0	0	0;
	239	550	-55.5294447	400	-400	1	100	1	650	0	0	0	0	0	0	0	0	0	0	0	0;
	241	575.43	-14.9072965	600	-600	1.05	100	1	675.43	0	0	0	0	0	0	0	0	0	0	0	0;
	242	170	56.4132383	100	40	0.993	100	1	270	0	0	0	0	0	0	0	0	0	0	0	0;
	243	84	52.2552102	80	40	1.01	100	1	184	0	0	0	0	0	0	0	0	0	0	0	0;
	7001	467	204.23422	210	-210	1.0507	100	1	567	0	0	0	0	0	0	0	0	0	0	0	0;
	7002	623	134.800813	280	-280	1.0507	100	1	723	0	0	0	0	0	0	0	0	0	0	0	0;
	7003	1210	202.938467	420	-420	1.0323	100	1	1310	0	0	0	0	0	0	0	0	0	0	0	0;
	7011	234	38.8906824	100	-100	1.0145	100	1	334	0	0	0	0	0	0	0	0	0	0	0	0;
	7012	372	123.170839	224	-224	1.0507	100	1	472	0	0	0	0	0	0	0	0	0	0	0	0;
	7017	330	364.206252	350	0	1.0507	100	1	430	0	0	0	0	0	0	0	0	0	0	0	0;
	7023	185	47.0602202	120	0	1.0507	100	1	285	0	0	0	0	0	0	0	0	0	0	0	0;
	7024	410	24.9924091	224	-224	1.029	100	1	510	0	0	0	0	0	0	0	0	0	0	0	0;
	7039	500	100.624636	200	-200	1.05	100	1	600	0	0	0	0	0	0	0	0	0	0	0	0;
	7044	37	15.1327883	42	0	1.0145	100	1	137	0	0	0	0	0	0	0	0	0	0	0	0;
	7049	460.738822	79.4804913	10	0	1.0507	100	1	2399.005	0	0	0	0	0	0	0	0	0	0	0	0;
	7055	45	10.0936342	25	0	0.9967	100	1	145	0	0	0	0	0	0	0	0	0	0	0	0;
	7057	165	58.1945454	90	-90	1.0212	100	1	265	0	0	0	0	0	0	0	0	0	0	0	0;
	7061	400	189.760749	150	-150	1.0145	100	1	500	0	0	0	0	0	0	0	0	0	0	0	0;
	7062	400	30.2624096	150	0	1.0017	100	1	500	0	0	0	0	0	0	0	0	0	0	0	0;
	7071	116	57.1655305	87	0	0.9893	100	1	216	0	0	0	0	0	0	0	0	0	0	0	0;
	7130	1292	434.827074	600	-100	1.0507	100	1	1392	0	0	0	0	0	0	0	0	0	0	0	0;
	7139	700	182.012929	325	-125	1.0507	100	1	800	0	0	0	0	0	0	0	0	0	0	0	0;
	7166	553	124.590432	300	-200	1.0145	100	1	653	0	0	0	0	0	0	0	0	0	0	0	0;
	9002	0	5.95486218	2	-2	0.9945	100	1	100	0	0	0	0	0	0	0	0	0	0	0	0;
	9051	0	4.50683078	17.35	-17.35	1	100	1	100	0	0	0	0	0	0	0	0	0	0	0	0;
	9053	0	3.62751513	12.83	-12.8	1	100	1	100	0	0	0	0	0	0	0	0	0	0	0	0;
	9054	50	3.27309271	38	-38	1	100	1	150	0	0	0	0	0	0	0	0	0	0	0	0;
	9055	8	0.516407344	6	-6	1	100	1	108	0	0	0	0	0	0	0	0	0	0	0	0;
];

%% branch data
%	fbus	tbus	r	x	b	rateA	rateB	rateC	ratio	angle	status	angmin	angmax	Pf	Qf	Pt	Qt
mpc.branch = [
	37	9001	6e-05	0.00046	0	0	0	75	1	0	1	-360	360	79.6265	43.0263	-79.6216	-42.9886;
	9001	9005	0.0008	0.00348	0	0	0	0	1	0	1	-360	360	36.2141	30.5589	-36.1961	-30.4807;
	9001	9006	0.02439	0.43682	0	0	0	0	1	0	1	-360	360	26.4132	11.5830	-26.2100	-7.9441;
	9001	9012	0.03624	0.64898	0	0	0	0	1	0	1	-360	360	16.9943	0.8467	-16.8892	1.0349;
	9005	9051	0.01578	0.37486	0	0	0	0	1	0	1	-360	360	36.0156	0.3763	-35.8100	4.5068;
	9005	9052	0.01578	0.37486	0	0	0	0	1	0	1	-360	360	30.2860	29.7942	-30.0000	-23.0000;
	9005	9053	0.01602	0.38046	0	0	0	0	1	0	1	-360	360	27.8946	-0.2308	-27.7694	3.2037;
	9005	9054	0	0.152	0	0	0	0	1	0	1	-360	360	-50.0000	0.5432	50.0000	3.2731;
	9005	9055	0	0.8	0	0	0	0	1	0	1	-360	360	-8.0000	-0.0023	8.0000	0.5164;
	9006	9007	0.05558	0.24666	0	0	0	0	1	0	1	-360	360	9.4520	2.9252	-9.3915	-2.6570;
	9006	9003	0.11118	0.49332	0	0	0	0	1	0	1	-360	360	8.3790	2.5095	-8.2846	-2.0903;
	9006	9003	0.11118	0.49332	0	0	0	0	1	0	1	-360	360	8.3790	2.5095	-8.2846	-2.0903;
	9012	9002	0.07622	0.43286	0	0	0	0	1	0	1	-360	360	6.5246	-1.2265	-6.4906	1.4197;
	9012	9002	0.07622	0.43286	0	0	0	0	1	0	1	-360	360	6.5246	-1.2265	-6.4906	1.4197;
	9002	9021	0.0537	0.07026	0	0	0	0	1	0	1	-360	360	7.3533	2.5694	-7.3204	-2.5263;
	9021	9023	1.1068	0.95278	0	0	0	0	1	0	1	-360	360	0.9523	0.3499	-0.9406	-0.3399;
	9021	9022	0.44364	2.8152	0	0	0	0	1	0	1	-360	360	1.6181	0.6163	-1.6045	-0.5300;
	9002	9024	0.50748	3.2202	0	0	0	0	1	0	1	-360	360	1.4279	0.5461	-1.4159	-0.4700;
	9023	9025	0.66688	3.944	0	0	0	0	1	0	1	-360	360	0.4704	0.1704	-0.4686	-0.1600;
	9023	9026	0.6113	3.6152	0	0	0	0	1	0	1	-360	360	0.4703	0.1695	-0.4686	-0.1600;
	9007	9071	0.4412	2.9668	0	0	0	0	1	0	1	-360	360	1.0688	0.3939	-1.0622	-0.3500;
	9007	9072	0.30792	2.057	0	0	0	0	1	0	1	-360	360	1.0672	0.3801	-1.0627	-0.3500;
	9007	9003	0.0558	0.24666	0	0	0	0	1	0	1	-360	360	7.2555	1.8829	-7.2197	-1.7248;
	9003	9031	0.73633	4.6724	0	0	0	0	1	0	1	-360	360	1.9555	0.8911	-1.9159	-0.6400;
	9003	9032	0.76978	4.8846	0	0	0	0	1	0	1	-360	360	1.4676	0.6246	-1.4448	-0.4800;
	9003	9033	0.75732	4.8056	0	0	0	0	1	0	1	-360	360	2.0084	0.9233	-1.9654	-0.6500;
	9003	9044	0.07378	0.06352	0	0	0	0	1	0	1	-360	360	4.4028	1.6028	-4.3840	-1.5866;
	9044	9004	0.03832	0.02894	0	0	0	0	1	0	1	-360	360	4.3840	1.5866	-4.3742	-1.5792;
	9004	9041	0.36614	2.456	0	0	0	0	1	0	1	-360	360	1.0565	0.3867	-1.0510	-0.3500;
	9004	9042	1.0593	5.4536	0	0	0	0	1	0	1	-360	360	0.8523	0.3340	-0.8418	-0.2800;
	9004	9043	0.1567	1.6994	0	0	0	0	1	0	1	-360	360	1.6054	0.5785	-1.6000	-0.5200;
	9003	9034	0.13006	1.3912	0	0	0	0	1	0	1	-360	360	1.6258	-0.9194	-1.6205	0.9759;
	9003	9035	0.54484	3.4572	0	0	0	0	1	0	1	-360	360	1.7544	0.7250	-1.7316	-0.5800;
	9003	9036	0.15426	1.6729	0	0	0	0	1	0	1	-360	360	3.0493	1.2095	-3.0300	-1.0000;
	9003	9037	0.3849	2.5712	0	0	0	0	1	0	1	-360	360	1.9607	0.7729	-1.9408	-0.6400;
	9003	9038	0.4412	2.9668	0	0	0	0	1	0	1	-360	360	2.7340	1.1976	-2.6883	-0.8900;
	9012	9121	0.23552	0.99036	0	0	0	0	1	0	1	-360	360	3.8400	1.4180	-3.8000	-1.2500;
	9053	9533	0	0.75	0	0	0	0	1	0	1	-360	360	1.2894	0.4238	-1.2894	-0.4100;
	1	5	0.001	0.006	0	0	0	0	1	0	1	-360	360	401.1116	114.2975	-399.4279	-104.1953;
	2	6	0.001	0.009	0	0	0	0	1	0	1	-360	360	156.9683	57.4629	-156.7047	-55.0906;
	2	8	0.006	0.027	0.054	9999	0	0	0	0	1	-360	360	368.3668	-12.5068	-360.6810	41.4478;
	3	7	0	0.003	0	0	0	0	1	0	1	-360	360	269.2265	43.7130	-269.2265	-41.5640;
	3	19	0.008	0.069	0.139	9999	0	0	0	0	1	-360	360	143.2928	-3.3949	-141.7100	2.7401;
	3	150	0.001	0.007	0	0	0	0	1	0	1	-360	360	93.4658	91.8777	-93.3004	-90.7199;
	4	16	0.002	0.019	1.127	9999	0	0	0	0	1	-360	360	697.8880	-86.9261	-688.5610	57.6551;
	5	9	0.006	0.029	0.018	9999	0	0	0	0	1	-360	360	116.6196	3.7700	-115.8120	-1.6744;
	7	12	0.001	0.009	0.07	9999	0	0	0	0	1	-360	360	189.7590	-48.8919	-189.3917	44.9298;
	7	131	0.001	0.007	0.014	9999	0	0	0	0	1	-360	360	45.9804	72.1603	-45.9087	-73.1011;
	8	11	0.013	0.0595	0.033	9999	0	0	0	0	1	-360	360	0.3400	10.5048	-0.3212	-13.7964;
	8	14	0.013	0.042	0.081	9999	0	0	0	0	1	-360	360	297.3409	-8.7480	-286.1886	36.6593;
	9	11	0.006	0.027	0.013	9999	0	0	0	0	1	-360	360	19.8120	-41.3256	-19.6887	40.5719;
	11	13	0.008	0.034	0.018	9999	0	0	0	0	1	-360	360	151.3997	-5.5240	-149.5936	11.3870;
	12	21	0.002	0.015	0.118	9999	0	0	0	0	1	-360	360	428.0020	31.0343	-424.4549	-16.5675;
	13	20	0.006	0.034	0.016	9999	0	0	0	0	1	-360	360	91.5936	-21.3870	-91.0637	22.7897;
	14	15	0.014	0.042	0.097	9999	0	0	0	0	1	-360	360	126.1886	-96.6593	-122.6847	97.4966;
	15	37	0.065	0.248	0.121	9999	0	0	0	0	1	-360	360	17.8395	-6.0625	-17.6369	-5.3841;
	15	89	0.099	0.248	0.035	9999	0	0	0	0	1	-360	360	14.2933	-11.3293	-14.0068	8.4374;
	15	90	0.096	0.363	0.048	9999	0	0	0	0	1	-360	360	12.2060	-6.1531	-12.0530	1.8184;
	16	42	0.002	0.022	1.28	9999	0	0	0	0	1	-360	360	395.6204	-98.8258	-392.6077	-2.2539;
	19	21	0.002	0.018	0.036	9999	0	0	0	0	1	-360	360	-52.0394	13.8176	52.0974	-16.9618;
	19	87	0.013	0.08	0.151	9999	0	0	0	0	1	-360	360	193.7495	-16.5576	-188.9546	30.7542;
	20	22	0.016	0.033	0.015	9999	0	0	0	0	1	-360	360	-12.4989	26.1253	12.6392	-27.3287;
	20	27	0.069	0.186	0.098	9999	0	0	0	0	1	-360	360	25.3579	2.4757	-24.8776	-10.7077;
	21	24	0.004	0.034	0.28	9999	0	0	0	0	1	-360	360	-231.4378	-38.5012	233.5689	27.5772;
	22	23	0.052	0.111	0.05	9999	0	0	0	0	1	-360	360	-93.6392	4.3287	98.2766	0.3893;
	23	25	0.019	0.039	0.018	9999	0	0	0	0	1	-360	360	125.4202	10.2897	-122.6410	-6.4880;
	24	319	0.007	0.068	0.134	9999	0	0	0	0	1	-360	360	116.7343	-29.2313	-115.8000	24.0000;
	25	26	0.036	0.071	0.034	9999	0	0	0	0	1	-360	360	77.6410	-5.5120	-75.5299	6.2519;
	26	27	0.045	0.12	0.065	9999	0	0	0	0	1	-360	360	45.0524	-1.4866	-44.1224	-2.2923;
	26	320	0.043	0.13	0.014	9999	0	0	0	0	1	-360	360	2.4774	-13.7653	-2.4000	12.6000;
	33	34	0	0.063	0	0	0	0	1	0	1	-360	360	-119.6189	-22.2316	119.6189	31.4618;
	33	38	0.0025	0.012	0.013	9999	0	0	0	0	1	-360	360	84.9008	19.8318	-84.7121	-20.2334;
	33	40	0.006	0.029	0.02	9999	0	0	0	0	1	-360	360	47.0772	-2.3791	-46.9455	0.9997;
	33	41	0.007	0.043	0.026	9999	0	0	0	0	1	-360	360	-67.3591	-1.2210	67.6735	0.5118;
	34	42	0.001	0.008	0.042	9999	0	0	0	0	1	-360	360	-119.6189	-31.4618	119.7641	28.2230;
	35	72	0.012	0.06	0.008	9999	0	0	0	0	1	-360	360	48.7701	9.5987	-48.4566	-8.7810;
	35	76	0.006	0.014	0.002	9999	0	0	0	0	1	-360	360	114.7851	26.2835	-113.9077	-24.4239;
	35	77	0.01	0.029	0.003	9999	0	0	0	0	1	-360	360	-47.4214	-7.1225	47.6636	7.5382;
	36	88	0.004	0.027	0.043	9999	0	0	0	0	1	-360	360	-116.1338	-35.8521	116.7314	35.6151;
	37	38	0.008	0.047	0.008	9999	0	0	0	0	1	-360	360	49.9901	-10.6974	-49.7815	11.1228;
	37	40	0.022	0.064	0.007	9999	0	0	0	0	1	-360	360	38.2622	-18.0688	-37.8707	18.5061;
	37	41	0.01	0.036	0.02	9999	0	0	0	0	1	-360	360	-43.6281	-18.3498	43.8487	17.1245;
	37	49	0.017	0.081	0.048	9999	0	0	0	0	1	-360	360	-187.2953	-2.7223	193.2645	26.1567;
	37	89	0.102	0.254	0.033	9999	0	0	0	0	1	-360	360	-2.9533	-8.7990	3.0144	5.5837;
	37	90	0.047	0.127	0.016	9999	0	0	0	0	1	-360	360	-1.3652	-11.0050	1.4151	9.5193;
	38	41	0.008	0.037	0.02	9999	0	0	0	0	1	-360	360	-104.4999	-2.3107	105.3725	4.3246;
	38	43	0.032	0.087	0.04	9999	0	0	0	0	1	-360	360	83.9934	-6.5787	-81.7321	8.8007;
	39	42	0.0006	0.0064	0.404	9999	0	0	0	0	1	-360	360	500.0000	26.0908	-498.5754	-53.5948;
	40	48	0.026	0.154	0.022	9999	0	0	0	0	1	-360	360	38.8161	1.4942	-38.4249	-1.3622;
	41	42	0	0.029	0	0	0	0	1	0	1	-360	360	-191.9143	-47.5383	191.9143	58.6462;
	41	49	0.065	0.191	0.02	9999	0	0	0	0	1	-360	360	-68.9245	10.0544	72.0282	-3.0420;
	41	51	0.031	0.089	0.036	9999	0	0	0	0	1	-360	360	-42.0560	15.5230	42.6848	-17.3864;
	42	46	0.002	0.014	0.806	9999	0	0	0	0	1	-360	360	579.5048	-31.0205	-573.1140	-8.1791;
	43	44	0.026	0.072	0.035	9999	0	0	0	0	1	-360	360	11.1746	-17.8589	-11.0701	14.7517;
	43	48	0.095	0.262	0.032	9999	0	0	0	0	1	-360	360	-5.2779	-3.3144	5.3085	0.2905;
	43	53	0.013	0.039	0.016	9999	0	0	0	0	1	-360	360	36.8354	3.3726	-36.6496	-4.3439;
	44	47	0.027	0.084	0.039	9999	0	0	0	0	1	-360	360	116.6739	-1.6163	-112.9207	9.5760;
	44	54	0.028	0.084	0.037	9999	0	0	0	0	1	-360	360	-21.3020	16.2766	21.5253	-19.1973;
	45	60	0.007	0.041	0.312	9999	0	0	0	0	1	-360	360	-222.0995	21.1623	225.6463	-31.7477;
	45	74	0.009	0.054	0.411	9999	0	0	0	0	1	-360	360	239.9592	-13.0801	-234.7731	3.7848;
	46	81	0.005	0.042	0.69	9999	0	0	0	0	1	-360	360	312.9526	-73.5711	-308.1347	42.2587;
	47	73	0.052	0.145	0.073	9999	0	0	0	0	1	-360	360	25.9791	-14.5902	-25.5299	9.0509;
	47	113	0.043	0.118	0.013	9999	0	0	0	0	1	-360	360	28.9416	-6.7858	-28.5352	6.7022;
	48	107	0.025	0.062	0.007	9999	0	0	0	0	1	-360	360	-7.8836	-17.9282	7.9783	17.4670;
	49	51	0.031	0.094	0.043	9999	0	0	0	0	1	-360	360	103.4461	5.8125	-100.3762	-1.0292;
	51	52	0.037	0.109	0.049	9999	0	0	0	0	1	-360	360	62.6914	13.4156	-61.1703	-13.7351;
	52	55	0.027	0.08	0.036	9999	0	0	0	0	1	-360	360	0.1703	-14.2649	-0.1250	10.9719;
	53	54	0.025	0.073	0.035	9999	0	0	0	0	1	-360	360	-32.3504	1.3439	32.6284	-3.8753;
	54	55	0.035	0.103	0.047	9999	0	0	0	0	1	-360	360	-64.1537	22.0726	65.8674	-21.5497;
	55	57	0.065	0.169	0.082	9999	0	0	0	0	1	-360	360	-42.7424	6.4735	44.0501	-11.0730;
	57	58	0.046	0.08	0.036	9999	0	0	0	0	1	-360	360	-9.1607	36.9659	9.8980	-39.1502;
	57	63	0.159	0.537	0.071	9999	0	0	0	0	1	-360	360	32.1106	-3.3938	-30.4529	2.2213;
	58	59	0.009	0.026	0.005	9999	0	0	0	0	1	-360	360	-23.8980	38.1502	24.0944	-38.0473;
	59	61	0.002	0.013	0.015	9999	0	0	0	0	1	-360	360	-242.0944	-67.9527	243.4649	75.4578;
	60	62	0.009	0.065	0.485	9999	0	0	0	0	1	-360	360	-225.6463	31.7477	230.4654	-45.6966;
	62	64	0.016	0.105	0.203	9999	0	0	0	0	1	-360	360	197.9726	23.1215	-191.5278	-0.2472;
	62	144	0.001	0.007	0.013	9999	0	0	0	0	1	-360	360	-98.9028	-43.8590	99.0193	43.3681;
	63	526	0.0265	0.172	0.026	9999	0	0	0	0	1	-360	360	151.9807	6.1120	-145.3000	34.9000;
	69	211	0.051	0.232	0.028	9999	0	0	0	0	1	-360	360	-27.6029	-11.1216	28.0823	10.6334;
	69	79	0.051	0.157	0.023	9999	0	0	0	0	1	-360	360	-17.2575	-7.8212	17.4493	6.2645;
	70	71	0.032	0.1	0.062	9999	0	0	0	0	1	-360	360	-84.3829	1.1977	87.0614	1.7152;
	70	528	0.02	0.1234	0.028	9999	0	0	0	0	1	-360	360	28.3829	-21.1977	-28.1000	20.5000;
	71	72	0.036	0.131	0.068	9999	0	0	0	0	1	-360	360	-26.3996	-2.1141	26.6763	-3.1142;
	71	73	0.034	0.099	0.047	9999	0	0	0	0	1	-360	360	-60.6618	7.7808	62.0765	-7.9906;
	72	77	0.018	0.087	0.011	9999	0	0	0	0	1	-360	360	-49.2767	-10.0346	49.7664	11.3630;
	72	531	0.0256	0.193	0	0	0	0	1	0	1	-360	360	14.0570	2.9298	-14.0000	-2.5000;
	73	76	0.021	0.057	0.03	9999	0	0	0	0	1	-360	360	25.3472	-4.8798	-25.2000	2.4863;
	73	79	0.018	0.052	0.018	9999	0	0	0	0	1	-360	360	-24.3081	-10.8140	24.4411	9.4993;
	74	88	0.004	0.027	0.05	9999	0	0	0	0	1	-360	360	-78.0997	-65.9241	78.5192	63.8210;
	74	562	0.0286	0.2013	0.379	9999	0	0	0	0	1	-360	360	51.2871	-12.9297	-50.5000	-17.4000;
	76	77	0.016	0.043	0.004	9999	0	0	0	0	1	-360	360	-68.8922	-13.4637	69.7412	15.3672;
	77	78	0.001	0.006	0.007	9999	0	0	0	0	1	-360	360	-257.0837	-54.5103	257.8010	58.1362;
	77	80	0.014	0.07	0.038	9999	0	0	0	0	1	-360	360	-3.4557	-4.4500	3.4584	0.7980;
	77	552	0.0891	0.2676	0.029	9999	0	0	0	0	1	-360	360	-10.9826	-3.8873	11.1000	1.4000;
	77	609	0.0782	0.2127	0.022	9999	0	0	0	0	1	-360	360	30.3507	0.5793	-29.6000	-0.6000;
	78	79	0.006	0.022	0.011	9999	0	0	0	0	1	-360	360	80.1990	25.5474	-79.7610	-25.0016;
	78	84	0	0.036	0	0	0	0	1	0	1	-360	360	-338.0000	-83.6837	338.0000	128.4865;
	79	211	0.099	0.375	0.051	9999	0	0	0	0	1	-360	360	-10.1294	-4.7622	10.2416	0.2241;
	80	211	0.022	0.107	0.058	9999	0	0	0	0	1	-360	360	-31.4584	-7.7980	31.6892	3.2374;
	81	194	0.0035	0.033	0.53	9999	0	0	0	0	1	-360	360	11.5623	-84.8627	-11.4493	29.3325;
	81	195	0.0035	0.033	0.53	9999	0	0	0	0	1	-360	360	101.3218	-66.3621	-100.9297	13.9290;
	85	86	0.008	0.064	0.128	9999	0	0	0	0	1	-360	360	-95.6298	-0.9571	96.3807	-5.6256;
	86	87	0.012	0.093	0.183	9999	0	0	0	0	1	-360	360	-120.5492	3.7578	122.3309	-8.2279;
	86	323	0.006	0.048	0.092	9999	0	0	0	0	1	-360	360	-14.8562	17.8341	14.9000	-26.5000;
	89	91	0.047	0.119	0.014	9999	0	0	0	0	1	-360	360	-33.2076	-14.0211	33.7848	13.9785;
	90	92	0.032	0.174	0.024	9999	0	0	0	0	1	-360	360	-55.3621	-11.3378	56.3495	14.1467;
	91	94	0.1	0.253	0.031	9999	0	0	0	0	1	-360	360	5.0715	11.7752	-4.8838	-14.6117;
	91	97	0.022	0.077	0.039	9999	0	0	0	0	1	-360	360	98.7437	16.6811	-96.7349	-13.8366;
	92	103	0.019	0.144	0.017	9999	0	0	0	0	1	-360	360	77.6559	10.2045	-76.5993	-4.0353;
	92	105	0.017	0.092	0.012	9999	0	0	0	0	1	-360	360	140.1946	17.9199	-137.1224	-2.5825;
	94	97	0.278	0.427	0.043	9999	0	0	0	0	1	-360	360	11.2075	-10.1719	-10.6974	6.5054;
	97	100	0.022	0.053	0.007	9999	0	0	0	0	1	-360	360	43.5035	6.0175	-43.0946	-5.7516;
	97	102	0.038	0.092	0.012	9999	0	0	0	0	1	-360	360	40.2045	2.4084	-39.6106	-2.1979;
	97	103	0.048	0.122	0.015	9999	0	0	0	0	1	-360	360	-16.1757	-1.0948	16.2965	-0.1709;
	98	100	0.024	0.064	0.007	9999	0	0	0	0	1	-360	360	-7.0417	-9.2298	7.0725	8.6068;
	98	102	0.034	0.121	0.015	9999	0	0	0	0	1	-360	360	8.3417	-5.3132	-8.3110	3.9185;
	99	107	0.053	0.135	0.017	9999	0	0	0	0	1	-360	360	-50.2525	10.4482	51.6891	-8.4767;
	99	108	0.002	0.004	0.002	9999	0	0	0	0	1	-360	360	-11.6738	-13.1862	11.6801	13.0029;
	99	109	0.045	0.354	0.044	9999	0	0	0	0	1	-360	360	29.2567	0.8277	-28.8590	-1.9253;
	99	110	0.05	0.174	0.022	9999	0	0	0	0	1	-360	360	44.7994	-1.6244	-43.7738	3.0804;
	100	102	0.016	0.038	0.004	9999	0	0	0	0	1	-360	360	36.0221	-2.8552	-35.8164	2.9397;
	102	104	0.043	0.064	0.027	9999	0	0	0	0	1	-360	360	44.9627	-21.4887	-43.9248	20.3340;
	103	105	0.019	0.062	0.008	9999	0	0	0	0	1	-360	360	28.3028	4.2062	-28.1549	-4.5627;
	104	108	0.076	0.13	0.044	9999	0	0	0	0	1	-360	360	32.9128	-14.9697	-31.9597	12.2570;
	104	322	0.044	0.124	0.015	9999	0	0	0	0	1	-360	360	2.4120	-5.3642	-2.4000	3.9000;
	105	107	0.012	0.088	0.011	9999	0	0	0	0	1	-360	360	64.7680	11.5352	-64.2674	-8.9903;
	105	110	0.157	0.4	0.047	9999	0	0	0	0	1	-360	360	50.9093	-4.3900	-46.9935	9.7063;
	108	324	0.074	0.208	0.026	9999	0	0	0	0	1	-360	360	25.1796	-2.3618	-24.7000	1.2000;
	109	110	0.07	0.184	0.021	9999	0	0	0	0	1	-360	360	-11.1792	3.4222	11.2865	-5.1192;
	109	113	0.1	0.274	0.031	9999	0	0	0	0	1	-360	360	-2.2989	3.9183	2.3352	-6.7022;
	109	114	0.109	0.393	0.036	9999	0	0	0	0	1	-360	360	11.6371	-5.4152	-11.4645	2.6332;
	110	112	0.142	0.404	0.05	9999	0	0	0	0	1	-360	360	16.4809	-7.6675	-16.0291	4.2359;
	112	114	0.017	0.042	0.006	9999	0	0	0	0	1	-360	360	-3.5709	-4.2359	3.5760	3.6805;
	115	122	0.0036	0.0199	0.004	9999	0	0	0	0	1	-360	360	47.1462	-22.0193	-47.0436	22.2065;
	116	120	0.002	0.1049	0.001	9999	0	0	0	0	1	-360	360	-61.7619	59.0496	61.9034	-51.7249;
	117	118	0.0001	0.0018	0.017	9999	0	0	0	0	1	-360	360	-493.9601	379.2974	494.3828	-373.2409;
	118	119	0	0.0271	0	0	0	0	1	0	1	-360	360	-586.6922	-273.8922	586.6922	399.2233;
	118	1201	0	0.6163	0	0	0	0	1	0	1	-360	360	30.2406	-1.3026	-30.2406	7.5316;
	1201	120	0	-0.3697	0	0	0	0	1	0	1	-360	360	30.2406	-7.5316	-30.2406	3.7950;
	118	121	0.0022	0.2915	0	0	0	0	1	0	1	-360	360	47.9687	-1.5643	-47.9128	8.9716;
	119	120	0	0.0339	0	0	0	0	1	0	1	-360	360	708.6628	347.4758	-708.6628	-153.5379;
	119	121	0	0.0582	0	0	0	0	1	0	1	-360	360	534.2334	221.5283	-534.2334	-42.7527;
	122	123	0.0808	0.2344	0.029	9999	0	0	0	0	1	-360	360	18.2639	-17.5230	-17.7599	16.1500;
	122	125	0.0965	0.3669	0.054	9999	0	0	0	0	1	-360	360	15.5412	-15.1197	-15.1371	11.3284;
	123	124	0.036	0.1076	0.117	9999	0	0	0	0	1	-360	360	-66.6713	-1.5987	68.2739	-5.6022;
	123	125	0.0476	0.1414	0.149	9999	0	0	0	0	1	-360	360	6.4312	-15.9513	-6.3774	1.0375;
	125	126	0.0006	0.0197	0	0	0	0	1	0	1	-360	360	-493.2855	126.1129	494.8094	-76.0796;
	126	127	0.0059	0.0405	0.25	9999	0	0	0	0	1	-360	360	-99.8991	0.4237	100.5055	-20.9708;
	126	129	0.0115	0.1106	0.185	9999	0	0	0	0	1	-360	360	-131.9184	12.8691	134.0028	-11.1160;
	126	132	0.0198	0.1688	0.321	9999	0	0	0	0	1	-360	360	-156.4471	35.1898	161.8806	-20.0462;
	126	157	0.005	0.05	0.33	9999	0	0	0	0	1	-360	360	-28.7993	16.7422	28.8966	-47.8446;
	126	158	0.0077	0.0538	0.335	9999	0	0	0	0	1	-360	360	-47.1205	-14.2959	47.2942	-17.6412;
	126	169	0.0165	0.1157	0.171	9999	0	0	0	0	1	-360	360	-88.5250	20.0506	89.9711	-26.5736;
	127	128	0.0059	0.0577	0.095	9999	0	0	0	0	1	-360	360	-172.5029	21.5850	174.3175	-13.2450;
	127	134	0.0049	0.0336	0.208	9999	0	0	0	0	1	-360	360	-136.9650	-58.9649	138.0108	45.0389;
	127	168	0.0059	0.0577	0.095	9999	0	0	0	0	1	-360	360	-171.8375	21.3507	173.6378	-13.1519;
	128	130	0.0078	0.0773	0.126	9999	0	0	0	0	1	-360	360	-235.2625	34.4864	239.7524	-2.5221;
	128	133	0.0026	0.0193	0.03	9999	0	0	0	0	1	-360	360	60.9450	-21.2414	-60.8372	19.0634;
	129	130	0.0076	0.0752	0.122	9999	0	0	0	0	1	-360	360	-233.3897	33.7568	237.6890	-3.3536;
	129	133	0.0021	0.0186	0.03	9999	0	0	0	0	1	-360	360	99.3869	-22.6407	-99.1681	21.6001;
...
];

%%-----  OPF Data  -----%%
%% generator cost data
%	1	startup	shutdown	n	x1	y1	...	xn	yn
%	2	startup	shutdown	n	c(n-1)	...	c0
mpc.gencost = [
	2	0	0	3	0.01	40	0;
	2	0	0	3	0.01	40	0;
	2	0	0	3	0.01	40	0;
	2	0	0	3	0.01	40	0;
	2	0	0	3	0.01	40	0;
	2	0	0	3	0.0266666667	20	0;
	2	0	0	3	0.064516129	20	0;
	2	0	0	3	0.0344827586	20	0;
	2	0	0	3	0.147058824	20	0;
	2	0	0	3	0.0854700855	20	0;
	2	0	0	3	0.00518134715	20	0;
	2	0	0	3	0.0416666667	20	0;
	2	0	0	3	0.01	40	0;
	2	0	0	3	0.01	40	0;
	2	0	0	3	0.0355871886	20	0;
	2	0	0	3	0.0143678161	20	0;
	2	0	0	3	0.119047619	20	0;
	2	0	0	3	0.0460829493	20	0;
	2	0	0	3	0.0970873786	20	0;
	2	0	0	3	0.0268817204	20	0;
	2	0	0	3	0.0462962963	20	0;
	2	0	0	3	0.01	40	0;
	2	0	0	3	0.0487804878	20	0;
	2	0	0	3	0.01	40	0;
	2	0	0	3	0.0438596491	20	0;
	2	0	0	3	0.119047619	20	0;
	2	0	0	3	0.05	20	0;
	2	0	0	3	0.00833333333	20	0;
	2	0	0	3	0.00833333333	20	0;
	2	0	0	3	0.0210526316	20	0;
	2	0	0	3	0.00506842372	20	0;
	2	0	0	3	0.0235849057	20	0;
	2	0	0	3	0.0367647059	20	0;
	2	0	0	3	0.1	20	0;
	2	0	0	3	0.0222222222	20	0;
	2	0	0	3	0.04	20	0;
	2	0	0	3	0.0330033003	20	0;
	2	0	0	3	0.0289855072	20	0;
	2	0	0	3	0.0333333333	20	0;
	2	0	0	3	0.0166666667	20	0;
	2	0	0	3	0.04	20	0;
	2	0	0	3	0.0181818182	20	0;
	2	0	0	3	0.0173783084	20	0;
	2	0	0	3	0.0588235294	20	0;
	2	0	0	3	0.119047619	20	0;
	2	0	0	3	0.0214132762	20	0;
	2	0	0	3	0.0160513644	20	0;
	2	0	0	3	0.00826446281	20	0;
	2	0	0	3	0.0427350427	20	0;
	2	0	0	3	0.0268817204	20	0;
	2	0	0	3	0.0303030303	20	0;
	2	0	0	3	0.0540540541	20	0;
	2	0	0	3	0.0243902439	20	0;
	2	0	0	3	0.02	20	0;
	2	0	0	3	0.27027027	20	0;
	2	0	0	3	0.01	40	0;
	2	0	0	3	0.222222222	20	0;
	2	0	0	3	0.0606060606	20	0;
	2	0	0	3	0.025	20	0;
	2	0	0	3	0.025	20	0;
	2	0	0	3	0.0862068966	20	0;
	2	0	0	3	0.00773993808	20	0;
	2	0	0	3	0.0142857143	20	0;
	2	0	0	3	0.0180831826	20	0;
	2	0	0	3	0.01	40	0;
	2	0	0	3	0.01	40	0;
	2	0	0	3	0.01	40	0;
	2	0	0	3	0.2	20	0;
	2	0	0	3	1.25	20	0;
];
